7
Properties=species:S:1:pos:R:3 pbc="F F F"
H       -1.80053641      -1.11236878       0.46749445
H        0.67370177       1.23728638       0.63468383
H        0.90869479      -0.31157837      -0.96716826
H       -1.44175542       0.88307823       0.03371703
H        1.46854966      -0.12752711      -1.50456740
H       -1.11361184      -1.62102574      -0.33226083
H       -0.23203277      -0.17953202      -0.26006367
