7
Properties=species:S:1:pos:R:3 pbc="F F F"
H        1.80632248       0.08958941      -0.17923316
H       -1.63417983       0.25501828       0.88517469
H        0.55839106      -0.11642890       0.45199154
H       -0.87594958       0.59089904       0.07126539
H       -0.86408215       0.75886931       0.36663769
H        1.23055398      -1.38637377      -1.09654864
H        0.05049905      -0.04864353      -0.02744419
