15
Properties=species:S:1:pos:R:3 pbc="F F F"
He       0.68845289       3.35704063       3.46685963
He       3.31260403       2.05381930       4.50403185
He       6.94287254       0.95081173       2.91929648
Li       2.94933862       4.41201774      -2.77073224
Li       4.90420873      -0.53287488       4.54480466
Li       2.98741651       1.02080391      -0.79786015
H        4.02367086       3.38983729      -0.04742038
Li       6.32755007      -0.72777377       0.67662374
H        3.85722249       3.50969451      -0.20460395
Li       6.31325509       2.92598908      -1.36734288
H        4.03290236       3.64749847      -0.07244465
Li       4.80176753       6.13374213       0.22432166
Li       1.47349397       4.18741998       0.84511193
Li       1.39891883       0.63985418       2.82822327
Li       4.85980889       2.78461020       2.21653793
