20
Properties=species:S:1:pos:R:3 pbc="F F F"
He      -0.21997157      -0.78723998       0.08376327
H       -1.25383314       0.03695934       1.03427846
H       -0.23579902      -0.91917794      -0.41846568
B       -1.56424307      -9.50913828      -0.01612119
H       -3.46784859      -6.14757327       2.11479453
B       -4.01724897      -3.90239872      -1.89652193
B       -0.76131764      -9.95882661       0.86696868
Li      -1.85653267      -7.09256031       0.58785470
Li       0.14399726      -4.57102429       1.59971692
B        4.23136722      -7.00280377      -1.09767490
Be       2.25778423      -4.82490870       1.34379854
Be      -7.49530998      -3.89467673      -1.78740923
He      -2.48784500      -1.73417222       3.76758226
H       -1.82308473      -6.06751720       2.81663930
Be       0.48575641      -3.35361029       5.75525326
He      -0.78215851      -5.50307801      -1.95561404
H       -3.54162896      -5.98412630       2.02602323
Be       4.55396790      -5.09877276       5.11305909
He       0.58628206      -4.04397123      -0.91925918
H        1.94698756      -3.34530930      -0.06975052
