15
Properties=species:S:1:pos:R:3 pbc="F F F"
H        3.59264087       2.94375228       3.84524396
H        3.58006724       2.92056267       4.12075469
H        3.43347359       3.15486791       3.76856997
Li       2.05444984       1.87858620       5.62611096
He       0.02236892       6.04641916       2.40615998
Li       2.48360384       2.43146269       1.71510972
H        3.56490756       3.17243311       4.00322856
He       1.18482632       5.58570732       7.27120856
Li       3.00340669       5.50395185       4.14980566
H        3.36471143       2.99732863       3.98685439
H       -0.37769676       1.67978763       5.01430691
He       1.70238598       6.94502026       6.20592446
H        3.69259283       3.18492432       3.75754795
He      -0.06545285       4.27880525       0.92460626
Li      -0.85603393       3.71821671       3.73400320
