7
Properties=species:S:1:pos:R:3 pbc="F F F"
H       -0.69809546       1.11910333      -2.02863106
H        1.95408886      -2.95730710      -0.83063514
H        1.73160515       0.24938567      -1.60027070
H        0.60004078      -1.29691786      -0.03867402
H       -1.01233374      -0.51928566       0.01580285
H        0.26873774      -0.47903064      -0.76875955
H        0.55209326      -0.72298973      -1.02610030
