15
Properties=species:S:1:pos:R:3 pbc="F F F"
H        1.96184985       3.45555519       2.18489432
He      -2.02704864       1.52590667       4.04892490
Li     -14.81102355       6.62872614      -8.25653746
Li      -2.75123358      -1.49672816       1.09317718
He       0.54051900      -1.16568793       1.30043293
Li      -1.69063808      -1.39003358       5.06133355
H       -3.44074119      -2.72788696       3.14184880
Li     -14.61933588      10.44972817      -9.79055672
H        0.76033797      -2.24983448       5.93502682
He      -2.35808323       1.35826963       6.07351714
Li      -0.21780039       2.87932362       8.09025624
He       0.15160144       7.92726957       2.66741774
Li       2.04169971      -0.31417870       6.96864547
He      -1.43087562       1.58463340       5.12739628
H        1.94868437       3.19706087       2.11676708
