7
Properties=species:S:1:pos:R:3 pbc="F F F"
H       -1.79966319      -0.75271579       0.27352284
H        0.63899337       1.82875105       0.29178199
H        1.62529643       0.82870625       1.44142520
H        1.65493057       1.62330476      -0.46185390
H       -0.67664760      -0.18975822      -0.57770079
H        1.05813120      -0.04861623      -1.05332313
H        0.36107757       0.50539695       0.04452049
