7
Properties=species:S:1:pos:R:3 pbc="F F F"
H        0.36132746       2.11424126       0.26097132
H        0.26304655       0.05123230       0.10232165
H       -0.46603295       0.94971260       0.78801731
H       -0.13831467       0.25098831       0.04287985
H        0.23532524       1.50565911       1.63597081
H       -0.70114860       0.48075037       0.55319295
H        0.10734645       1.00324085       0.56024046
