7
Properties=species:S:1:pos:R:3 pbc="F F F"
H       -0.80544996      -0.62156271      -0.03145006
H        0.30867740      -0.07834276      -0.93462754
H       -0.00592134       0.00729449      -0.26627935
H        0.37511226       1.18107596       0.28194028
H       -2.03915915      -3.11676711      -0.37765315
H       -0.11499821      -0.15412981      -0.44635413
H       -0.46844656      -0.77514745      -0.33030716
