15
Properties=species:S:1:pos:R:3 pbc="F F F"
He       1.12517596       0.55128429       0.61109679
H        6.02019369       1.68910323       0.67398077
He       4.54797113      -1.51682599       3.59289651
He      -4.84558419       5.49509032       3.03429585
Li       3.18675779      -1.61273246       0.87656490
Li       6.94082222      -0.15948258       1.77649705
Li       5.23867258       0.59415811      -1.74743640
H        5.73479438       1.93359524       0.18603455
Li       3.78346167       2.30210073       1.77514271
H        5.57326043       2.09075071       0.05839751
H        5.68811243       1.84566721       0.41357156
H        2.38088241       4.40545652       2.75761297
H        5.87341593       1.86448155       0.54677396
He       4.16649089      -2.05913299      -1.89685253
Li       7.44734866       3.67242444       0.65623858
