20
Properties=species:S:1:pos:R:3 pbc="F F F"
B       -1.26445791       0.03194627      -0.19325591
H        0.07011654      -0.26409222      -0.38573461
H       -1.65579345      -0.41475172      -0.17742701
Be      -3.19022768       1.31135248       7.83890216
He      -1.62466076      -4.56070186       2.40438525
Li      -2.57749998      -4.76843899      -1.84057716
H        1.88011056      -5.42721792      -0.33318702
B        1.99289807      -0.57828050       2.39609057
H       -0.18633747      -1.94942506       6.28968467
He      -4.12461060      -2.25223844       1.13339437
B        2.30263078      -1.04930520       1.79485927
He      -1.44746445      -4.54122369       3.15845362
B        3.39717296      -2.93419570       3.04639977
Li      -2.51384412      -4.75824406      -1.80904429
He      -1.62996607      -4.55731947       2.43695785
B       -2.70262794      -4.69611628       3.82230529
H       -5.07762094      -1.10359339       2.63063026
Li       0.76542273      -3.18498608      -0.69602119
Be      -2.71045495      -4.82532990      -4.17064719
Be      -1.67039602       3.58051384       4.35574615
