7
Properties=species:S:1:pos:R:3 pbc="F F F"
H       -1.39620088       0.06747243      -0.82525596
H        0.93168586       0.73320765       0.09103605
H        0.48462073      -0.00617717      -0.51986056
H        0.38647597      -0.53732090      -0.83728867
H        0.27921044      -0.09765004       0.19215072
H       -1.48630919      -1.39453917      -1.13549695
H       -0.31936775      -0.22906783      -0.52078475
