15
Properties=species:S:1:pos:R:3 pbc="F F F"
H        0.64988337       1.70547721       2.36496745
He       0.91673277       4.58587465       6.26643508
H        4.09794949       1.01934866       4.36333031
H        1.43065311       0.90220106       4.65242397
H        2.84129425       1.03948686       5.29437595
He       4.05204938       1.61086160       0.23354054
He       3.79632000       4.90643917       4.98858594
He       1.29398290       5.71047987       3.24044752
He       3.93003444       4.37090332       1.85464033
H        0.18688077       1.35679413       3.81721737
H        2.68254234       1.04633228       3.79744735
H        1.54216080       1.95532325       3.55831518
He       3.94228136      -1.48213944       1.11426870
He       3.03124690      -2.89059712       3.88270153
H        1.31345851       0.54715704       3.14915290
