7
Properties=species:S:1:pos:R:3 pbc="F F F"
H        0.37801607      -1.15258050      -1.04949660
H       -0.83923664      -0.75150701      -0.77964641
H       -0.21924356      -0.63761685      -0.39102596
H        1.01936284      -0.57764418       0.37540144
H       -0.28517893      -0.60547950      -0.79123584
H        0.33553681       1.74340253       0.99201773
H        0.13970071      -0.07333235      -0.13521180
