15
Properties=species:S:1:pos:R:3 pbc="F F F"
He       4.77372141       0.89350631       0.63772774
He     -10.39709909       1.11440589      11.71003747
H        1.16054048       0.73610944       2.57169463
He       3.71188012      -1.43304737      -1.15216244
H        3.50225209       5.06782526      -3.20482467
He       6.21638036       3.65390850       0.53542135
He       2.63581707       1.47599532      -1.69834462
H       -7.79760826      -1.78827833      12.94736635
He       3.06375127       3.60784276       0.55316908
H        4.67246228       5.75284493      -2.48210658
He       4.53868526       2.69747004       3.18767318
H        1.87293000      -0.62301399       2.69342501
H        0.97686322      -0.32422142       1.47830948
He       5.74070110       1.85223418      -2.14335549
H        0.20035089       0.99681628       1.40273211
