7
Properties=species:S:1:pos:R:3 pbc="F F F"
H        1.56345363      -0.07525502      -0.38268763
H        0.97480677       0.90429322       1.73269868
H        1.53864738      -0.85671965      -0.54343050
H        0.13180138      -0.28534694      -0.63054112
H       -1.00448696       0.50982435       0.66349207
H       -1.36940449       0.05413374      -0.09201167
H        0.32114244       0.07761282       0.22340884
