7
Properties=species:S:1:pos:R:3 pbc="F F F"
H       -1.60835217       2.52076223       1.05018640
H       -2.29058470      -0.98096813       1.04018964
H        0.49254990       2.37201716      -1.30373442
H       -0.49136132      -0.76722099      -2.33969225
H        0.85426130       0.99394616       0.08605098
H        0.93787162       1.26885399       0.17400767
H       -0.49893362       0.83309085      -0.23643884
