7
Properties=species:S:1:pos:R:3 pbc="F F F"
H       -0.44635761       0.30817488       0.95225918
H       -0.07671533      -0.01063851       0.25547687
H        0.16304777      -0.78208111      -0.93617893
H       -1.34989697       0.38103749      -1.02391732
H        0.38111998      -0.90323706       0.69149632
H       -0.47439809      -0.43272489       1.42986344
H       -0.46271420      -0.32239011       0.10076769
