7
Properties=species:S:1:pos:R:3 pbc="F F F"
H       -0.79751345       1.28018896       0.40508086
H        0.71524270       0.14478913      -0.34153442
H       -0.38120810      -0.27208625       0.09706991
H        0.56324200       0.92520402       1.64950964
H        0.37609356       0.03436393       1.55704837
H        2.28383528       0.30348694      -0.92054985
H        0.54534638       0.46846068       0.39132781
