15
Properties=species:S:1:pos:R:3 pbc="F F F"
He       4.18197002       0.74850448       0.89290278
H        5.47489543       4.29481543      -2.11321510
Li       2.55437774      -1.37265730       1.74123492
Li       2.00741966       1.58022355      -0.96797058
H        7.54148294       4.12795736       1.01248235
H        2.48376981       2.70335005      -3.22305901
He       4.81072998       0.19925044       0.16681594
He       3.05758888       2.38807321       1.65521826
He       3.54115872       1.43441631       1.49353640
H        2.52158127       2.83866454      -3.00844341
H        2.28041874       2.77747327      -3.07965223
H        7.40140246       4.34015608       1.04646575
He       2.74068185       3.45835912       1.63133225
Li       5.50190145       3.12594866       0.07469274
Li       3.20653284       5.09926132      -2.66296297
