15
Properties=species:S:1:pos:R:3 pbc="F F F"
He       4.98609771       1.95910794       4.90688532
H        2.38911420       6.24152425       6.59464213
H        6.40596386       6.50345890      -0.18526819
He       5.30922042       4.52966003       3.09631711
H        1.25871277       5.92013841       5.60966533
H        6.46442549       7.98921922       0.20819392
He       4.99539659       9.20746106       6.58259481
He       3.13829128       6.65477240       2.21298516
He       2.95995037       9.22840650       4.08307616
He       8.15084998       5.85101701       3.43249812
H        6.57299958       5.17607288       7.04121513
H        2.44898491       4.96857734       5.75288174
H        5.05078064       5.23999427       7.19455295
He       5.57110729       7.54957855       3.98424621
H        3.63394345       5.36736630       6.63797246
