7
Properties=species:S:1:pos:R:3 pbc="F F F"
H       -0.00912897      -1.71994110       0.21584240
H        0.79669577       0.03744822      -0.98311153
H        0.72789765      -0.58775919       0.78564984
H       -0.86578824      -0.54986628       1.77519809
H        1.54209482       1.44646104      -0.22450356
H        0.76180458      -0.76900815       1.77585063
H        0.42723056      -0.21544625       0.47819910
